13U
     RDKit          3D

 68 70  0  0  1  0  0  0  0  0999 V2000
   -1.5143    0.9192   -0.8927 C   0  0  0  0  0  0  0  0  0  0  0  0
   -0.7861   -0.0798   -0.8977 O   0  0  0  0  0  0  0  0  0  0  0  0
   -3.0499    0.8163   -0.8385 C   0  0  0  0  0  0  0  0  0  0  0  0
   -3.4682   -0.5888   -1.0061 N   0  0  0  0  0  0  0  0  0  0  0  0
   -4.8153   -0.8685   -0.4720 C   0  0  0  0  0  0  0  0  0  0  0  0
   -5.0116   -2.4004   -0.4240 C   0  0  0  0  0  0  0  0  0  0  0  0
   -5.6787   -2.9172    0.8569 C   0  0  0  0  0  0  0  0  0  0  0  0
   -7.1548   -2.5777    1.0705 C   0  0  0  0  0  0  0  0  0  0  0  0
   -7.4361   -1.1006    1.3454 C   0  0  0  0  0  0  0  0  0  0  0  0
   -7.9580   -0.3006    0.1528 C   0  0  0  0  0  0  0  0  0  0  0  0
   -7.3224   -0.5641   -1.2077 C   0  0  0  0  0  0  0  0  0  0  0  0
   -5.8584   -0.1558   -1.3582 C   0  0  0  0  0  0  0  0  0  0  0  0
   -0.9760    2.1870   -0.8805 N   0  0  0  0  0  0  0  0  0  0  0  0
    0.4719    2.3739   -0.8824 C   0  0  2  0  0  0  0  0  0  0  0  0
    1.0866    1.8957    0.4483 C   0  0  0  0  0  0  0  0  0  0  0  0
    0.6404    2.2174    1.5480 O   0  0  0  0  0  0  0  0  0  0  0  0
    0.6708    3.8880   -1.0248 C   0  0  0  0  0  0  0  0  0  0  0  0
   -0.6591    4.3883   -1.5766 C   0  0  0  0  0  0  0  0  0  0  0  0
   -1.6756    3.4561   -0.9397 C   0  0  0  0  0  0  0  0  0  0  0  0
    2.2070    1.1063    0.2912 N   0  0  0  0  0  0  0  0  0  0  0  0
    2.8125    0.4725    1.4372 C   0  0  0  0  0  0  0  0  0  0  0  0
    4.1463   -0.1170    1.0601 C   0  0  0  0  0  0  0  0  0  0  0  0
    4.2337   -1.4337    0.5772 C   0  0  0  0  0  0  0  0  0  0  0  0
    5.4611   -1.9792    0.1625 C   0  0  0  0  0  0  0  0  0  0  0  0
    6.6147   -1.1818    0.2591 C   0  0  0  0  0  0  0  0  0  0  0  0
    7.9556   -1.6876   -0.1337 C   0  0  0  0  0  0  0  0  0  0  0  0
    8.7148   -1.0375   -0.9565 N   0  0  0  0  0  0  0  0  0  0  0  0
    8.4329   -2.8533    0.3839 N   0  0  0  0  0  0  0  0  0  0  0  0
    6.5351    0.1352    0.7300 C   0  0  0  0  0  0  0  0  0  0  0  0
    5.3063    0.6650    1.1234 C   0  0  0  0  0  0  0  0  0  0  0  0
    5.4956   -3.3864   -0.3653 C   0  0  0  0  0  0  0  0  0  0  0  0
   -3.4773    1.4098   -1.6507 H   0  0  0  0  0  0  0  0  0  0  0  0
   -3.3656    1.2162    0.1314 H   0  0  0  0  0  0  0  0  0  0  0  0
   -2.7678   -1.1712   -0.5388 H   0  0  0  0  0  0  0  0  0  0  0  0
   -4.8512   -0.4711    0.5466 H   0  0  0  0  0  0  0  0  0  0  0  0
   -5.5428   -2.7664   -1.3108 H   0  0  0  0  0  0  0  0  0  0  0  0
   -4.0310   -2.8979   -0.4563 H   0  0  0  0  0  0  0  0  0  0  0  0
   -5.5954   -4.0124    0.8478 H   0  0  0  0  0  0  0  0  0  0  0  0
   -5.0980   -2.5830    1.7264 H   0  0  0  0  0  0  0  0  0  0  0  0
   -7.7658   -2.9618    0.2459 H   0  0  0  0  0  0  0  0  0  0  0  0
   -7.4773   -3.1408    1.9573 H   0  0  0  0  0  0  0  0  0  0  0  0
   -8.2081   -1.0421    2.1251 H   0  0  0  0  0  0  0  0  0  0  0  0
   -6.5627   -0.6087    1.7849 H   0  0  0  0  0  0  0  0  0  0  0  0
   -9.0303   -0.5141    0.0548 H   0  0  0  0  0  0  0  0  0  0  0  0
   -7.8884    0.7689    0.3895 H   0  0  0  0  0  0  0  0  0  0  0  0
   -7.8929    0.0151   -1.9473 H   0  0  0  0  0  0  0  0  0  0  0  0
   -7.4639   -1.6078   -1.5057 H   0  0  0  0  0  0  0  0  0  0  0  0
   -5.5945   -0.3232   -2.4129 H   0  0  0  0  0  0  0  0  0  0  0  0
   -5.7881    0.9289   -1.2002 H   0  0  0  0  0  0  0  0  0  0  0  0
    0.8919    1.8312   -1.7360 H   0  0  0  0  0  0  0  0  0  0  0  0
    0.8717    4.3659   -0.0578 H   0  0  0  0  0  0  0  0  0  0  0  0
    1.5082    4.1280   -1.6878 H   0  0  0  0  0  0  0  0  0  0  0  0
   -0.8472    5.4394   -1.3458 H   0  0  0  0  0  0  0  0  0  0  0  0
   -0.6708    4.2671   -2.6662 H   0  0  0  0  0  0  0  0  0  0  0  0
   -2.6005    3.3971   -1.5172 H   0  0  0  0  0  0  0  0  0  0  0  0
   -1.9086    3.7566    0.0877 H   0  0  0  0  0  0  0  0  0  0  0  0
    2.2876    0.6097   -0.5895 H   0  0  0  0  0  0  0  0  0  0  0  0
    2.1307   -0.3049    1.8006 H   0  0  0  0  0  0  0  0  0  0  0  0
    2.9253    1.2038    2.2460 H   0  0  0  0  0  0  0  0  0  0  0  0
    3.3283   -2.0372    0.5096 H   0  0  0  0  0  0  0  0  0  0  0  0
    8.2351   -0.1995   -1.3029 H   0  0  0  0  0  0  0  0  0  0  0  0
    9.4311   -2.9474    0.2252 H   0  0  0  0  0  0  0  0  0  0  0  0
    8.1599   -3.0619    1.3366 H   0  0  0  0  0  0  0  0  0  0  0  0
    7.4313    0.7475    0.8015 H   0  0  0  0  0  0  0  0  0  0  0  0
    5.2549    1.6924    1.4824 H   0  0  0  0  0  0  0  0  0  0  0  0
    5.8506   -4.0720    0.4093 H   0  0  0  0  0  0  0  0  0  0  0  0
    4.4982   -3.7147   -0.6820 H   0  0  0  0  0  0  0  0  0  0  0  0
    6.1417   -3.4566   -1.2467 H   0  0  0  0  0  0  0  0  0  0  0  0
  1  2  2  0
  1  3  1  0
  3  4  1  0
  4  5  1  0
  5  6  1  0
  5 12  1  0
  6  7  1  0
  7  8  1  0
  8  9  1  0
  9 10  1  0
 10 11  1  0
 11 12  1  0
 13  1  1  0
 14 17  1  0
 14 13  1  0
 15 20  1  0
 15 14  1  0
 16 15  2  0
 17 18  1  0
 18 19  1  0
 19 13  1  0
 20 21  1  0
 21 22  1  0
 22 30  1  0
 22 23  2  0
 24 23  1  0
 24 31  1  0
 25 26  1  0
 25 24  2  0
 26 27  2  0
 26 28  1  0
 29 25  1  0
 30 29  2  0
  3 32  1  0
  3 33  1  0
  4 34  1  0
  5 35  1  0
  6 36  1  0
  6 37  1  0
  7 38  1  0
  7 39  1  0
  8 40  1  0
  8 41  1  0
  9 42  1  0
  9 43  1  0
 10 44  1  0
 10 45  1  0
 11 46  1  0
 11 47  1  0
 12 48  1  0
 12 49  1  0
 14 50  1  6
 17 51  1  0
 17 52  1  0
 18 53  1  0
 18 54  1  0
 19 55  1  0
 19 56  1  0
 20 57  1  0
 21 58  1  0
 21 59  1  0
 23 60  1  0
 27 61  1  0
 28 62  1  0
 28 63  1  0
 29 64  1  0
 30 65  1  0
 31 66  1  0
 31 67  1  0
 31 68  1  0
M  END
