13U
     RDKit          3D

 64 66  0  0  1  0  0  0  0  0999 V2000
   -0.8465    0.6956   -1.5984 C   0  0  0  0  0  0  0  0  0  0  0  0
    0.2779    0.2346   -1.8197 O   0  0  0  0  0  0  0  0  0  0  0  0
   -2.1140   -0.1000   -1.9435 C   0  0  0  0  0  0  0  0  0  0  0  0
   -2.7232   -0.5984   -0.7023 N   0  0  0  0  0  0  0  0  0  0  0  0
   -4.0128   -1.2750   -0.9059 C   0  0  0  0  0  0  0  0  0  0  0  0
   -4.2678   -2.1873    0.3117 C   0  0  0  0  0  0  0  0  0  0  0  0
   -4.6174   -1.5052    1.6362 C   0  0  0  0  0  0  0  0  0  0  0  0
   -6.1196   -1.3661    1.9121 C   0  0  0  0  0  0  0  0  0  0  0  0
   -6.7607   -0.0996    1.3507 C   0  0  0  0  0  0  0  0  0  0  0  0
   -7.4014   -0.2347   -0.0314 C   0  0  0  0  0  0  0  0  0  0  0  0
   -6.5429   -0.8265   -1.1478 C   0  0  0  0  0  0  0  0  0  0  0  0
   -5.1264   -0.2554   -1.2145 C   0  0  0  0  0  0  0  0  0  0  0  0
   -1.0110    1.9241   -0.9830 N   0  0  0  0  0  0  0  0  0  0  0  0
    0.1480    2.7257   -0.5591 C   0  0  2  0  0  0  0  0  0  0  0  0
    0.8401    2.0840    0.6654 C   0  0  0  0  0  0  0  0  0  0  0  0
    0.6218    2.4227    1.8255 O   0  0  0  0  0  0  0  0  0  0  0  0
   -0.4419    4.1030   -0.2216 C   0  0  0  0  0  0  0  0  0  0  0  0
   -1.7500    4.1433   -0.9987 C   0  0  0  0  0  0  0  0  0  0  0  0
   -2.2347    2.7065   -0.9197 C   0  0  0  0  0  0  0  0  0  0  0  0
    1.6980    1.0553    0.3373 N   0  0  0  0  0  0  0  0  0  0  0  0
    2.2601    0.2055    1.3558 C   0  0  0  0  0  0  0  0  0  0  0  0
    3.5664   -0.3788    0.9066 C   0  0  0  0  0  0  0  0  0  0  0  0
    3.6389   -1.6479    0.3375 C   0  0  0  0  0  0  0  0  0  0  0  0
    4.7866   -2.2322   -0.0795 N   0  0  0  0  0  0  0  0  0  0  0  0
    5.9210   -1.4915    0.0650 C   0  0  0  0  0  0  0  0  0  0  0  0
    7.1817   -2.1799   -0.3716 C   0  0  0  0  0  0  0  0  0  0  0  0
    8.3442   -1.6454   -0.1658 N   0  0  0  0  0  0  0  0  0  0  0  0
    7.0879   -3.4080   -0.9719 N   0  0  0  0  0  0  0  0  0  0  0  0
    5.9564   -0.2129    0.6007 C   0  0  0  0  0  0  0  0  0  0  0  0
    4.7561    0.3498    1.0234 C   0  0  0  0  0  0  0  0  0  0  0  0
    9.0530   -2.2654   -0.5648 H   0  0  0  0  0  0  0  0  0  0  0  0
   -1.8150   -0.9429   -2.5774 H   0  0  0  0  0  0  0  0  0  0  0  0
   -2.7846    0.5303   -2.5320 H   0  0  0  0  0  0  0  0  0  0  0  0
   -2.8181    0.1580   -0.0271 H   0  0  0  0  0  0  0  0  0  0  0  0
   -3.9186   -1.9482   -1.7686 H   0  0  0  0  0  0  0  0  0  0  0  0
   -3.3527   -2.7762    0.4758 H   0  0  0  0  0  0  0  0  0  0  0  0
   -5.0282   -2.9384    0.0672 H   0  0  0  0  0  0  0  0  0  0  0  0
   -4.1059   -0.5431    1.7473 H   0  0  0  0  0  0  0  0  0  0  0  0
   -4.2153   -2.1478    2.4326 H   0  0  0  0  0  0  0  0  0  0  0  0
   -6.2290   -1.3154    3.0045 H   0  0  0  0  0  0  0  0  0  0  0  0
   -6.6695   -2.2611    1.5982 H   0  0  0  0  0  0  0  0  0  0  0  0
   -6.0446    0.7294    1.3667 H   0  0  0  0  0  0  0  0  0  0  0  0
   -7.5611    0.2023    2.0379 H   0  0  0  0  0  0  0  0  0  0  0  0
   -8.3128   -0.8396    0.0552 H   0  0  0  0  0  0  0  0  0  0  0  0
   -7.7362    0.7638   -0.3425 H   0  0  0  0  0  0  0  0  0  0  0  0
   -6.5408   -1.9185   -1.0762 H   0  0  0  0  0  0  0  0  0  0  0  0
   -7.0499   -0.6103   -2.0981 H   0  0  0  0  0  0  0  0  0  0  0  0
   -4.9719    0.1135   -2.2373 H   0  0  0  0  0  0  0  0  0  0  0  0
   -5.0291    0.6329   -0.5801 H   0  0  0  0  0  0  0  0  0  0  0  0
    0.8552    2.7980   -1.3936 H   0  0  0  0  0  0  0  0  0  0  0  0
   -0.6566    4.2184    0.8467 H   0  0  0  0  0  0  0  0  0  0  0  0
    0.2332    4.9155   -0.5065 H   0  0  0  0  0  0  0  0  0  0  0  0
   -1.5517    4.4186   -2.0412 H   0  0  0  0  0  0  0  0  0  0  0  0
   -2.4707    4.8544   -0.5855 H   0  0  0  0  0  0  0  0  0  0  0  0
   -2.7105    2.5050    0.0457 H   0  0  0  0  0  0  0  0  0  0  0  0
   -2.9330    2.4713   -1.7247 H   0  0  0  0  0  0  0  0  0  0  0  0
    1.5381    0.6319   -0.5800 H   0  0  0  0  0  0  0  0  0  0  0  0
    1.5296   -0.5819    1.5709 H   0  0  0  0  0  0  0  0  0  0  0  0
    2.4014    0.7661    2.2866 H   0  0  0  0  0  0  0  0  0  0  0  0
    2.7446   -2.2526    0.1994 H   0  0  0  0  0  0  0  0  0  0  0  0
    7.7813   -4.0824   -0.6747 H   0  0  0  0  0  0  0  0  0  0  0  0
    6.1398   -3.7852   -0.9087 H   0  0  0  0  0  0  0  0  0  0  0  0
    6.8931    0.3257    0.6903 H   0  0  0  0  0  0  0  0  0  0  0  0
    4.7490    1.3523    1.4452 H   0  0  0  0  0  0  0  0  0  0  0  0
  1  2  2  0
  1  3  1  0
  3  4  1  0
  4  5  1  0
  5  6  1  0
  5 12  1  0
  6  7  1  0
  7  8  1  0
  8  9  1  0
  9 10  1  0
 10 11  1  0
 11 12  1  0
 13  1  1  0
 14 17  1  0
 14 13  1  0
 15 20  1  0
 15 14  1  0
 16 15  2  0
 17 18  1  0
 18 19  1  0
 19 13  1  0
 20 21  1  0
 21 22  1  0
 22 30  1  0
 22 23  2  0
 24 23  1  0
 25 26  1  0
 25 24  2  0
 26 27  2  0
 26 28  1  0
 27 31  1  0
 29 25  1  0
 30 29  2  0
  3 32  1  0
  3 33  1  0
  4 34  1  0
  5 35  1  0
  6 36  1  0
  6 37  1  0
  7 38  1  0
  7 39  1  0
  8 40  1  0
  8 41  1  0
  9 42  1  0
  9 43  1  0
 10 44  1  0
 10 45  1  0
 11 46  1  0
 11 47  1  0
 12 48  1  0
 12 49  1  0
 14 50  1  6
 17 51  1  0
 17 52  1  0
 18 53  1  0
 18 54  1  0
 19 55  1  0
 19 56  1  0
 20 57  1  0
 21 58  1  0
 21 59  1  0
 23 60  1  0
 28 61  1  0
 28 62  1  0
 29 63  1  0
 30 64  1  0
M  END
